/*--------------------------------*- C++ -*----------------------------------*\
  =========                 |
  \\      /  F ield         | OpenFOAM: The Open Source CFD Toolbox
   \\    /   O peration     | Website:  https://openfoam.org
    \\  /    A nd           | Version:  7
     \\/     M anipulation  |
\*---------------------------------------------------------------------------*/
FoamFile
{
    version     2.0;
    format      binary;
    class       polyBoundaryMesh;
    location    "constant/polyMesh";
    object      boundary;
}
// * * * * * * * * * * * * * * * * * * * * * * * * * * * * * * * * * * * * * //

6
(
    movingwall
    {
        type            wall;
        inGroups        List<word> 1(wall);
        nFaces          0;
        startFace       783272;
    }
    fixedwall
    {
        type            wall;
        inGroups        List<word> 1(wall);
        nFaces          64170;
        startFace       783272;
    }
    inlet
    {
        type            wall;
        inGroups        List<word> 1(wall);
        nFaces          4256;
        startFace       847442;
    }
    bottomwall
    {
        type            wall;
        inGroups        List<word> 1(wall);
        nFaces          0;
        startFace       851698;
    }
    outlet
    {
        type            wall;
        inGroups        List<word> 1(wall);
        nFaces          0;
        startFace       851698;
    }
    procBoundary1to0
    {
        type            processor;
        inGroups        List<word> 1(processor);
        nFaces          1077;
        startFace       851698;
        matchTolerance  0.0001;
        transform       unknown;
        myProcNo        1;
        neighbProcNo    0;
    }
)

// ************************************************************************* //
