/*--------------------------------*- C++ -*----------------------------------*\
  =========                 |
  \\      /  F ield         | OpenFOAM: The Open Source CFD Toolbox
   \\    /   O peration     | Website:  https://openfoam.org
    \\  /    A nd           | Version:  7
     \\/     M anipulation  |
\*---------------------------------------------------------------------------*/
FoamFile
{
    version     2.0;
    format      binary;
    class       polyBoundaryMesh;
    location    "constant/polyMesh";
    object      boundary;
}
// * * * * * * * * * * * * * * * * * * * * * * * * * * * * * * * * * * * * * //

7
(
    movingwall
    {
        type            wall;
        inGroups        List<word> 1(wall);
        nFaces          27348;
        startFace       784446;
    }
    fixedwall
    {
        type            wall;
        inGroups        List<word> 1(wall);
        nFaces          34778;
        startFace       811794;
    }
    inlet
    {
        type            wall;
        inGroups        List<word> 1(wall);
        nFaces          0;
        startFace       846572;
    }
    bottomwall
    {
        type            wall;
        inGroups        List<word> 1(wall);
        nFaces          12898;
        startFace       846572;
    }
    outlet
    {
        type            wall;
        inGroups        List<word> 1(wall);
        nFaces          0;
        startFace       859470;
    }
    procBoundary0to1
    {
        type            processor;
        inGroups        List<word> 1(processor);
        nFaces          1077;
        startFace       859470;
        matchTolerance  0.0001;
        transform       unknown;
        myProcNo        0;
        neighbProcNo    1;
    }
    procBoundary0to3
    {
        type            processor;
        inGroups        List<word> 1(processor);
        nFaces          2301;
        startFace       860547;
        matchTolerance  0.0001;
        transform       unknown;
        myProcNo        0;
        neighbProcNo    3;
    }
)

// ************************************************************************* //
